myETL/UCT_Source/20221102_1230_FO3_PT0.UCT
##C 2007.05.01
UCTE FILE CONVERTER FROM PSS/E RAW FILE
SBASE =  100.00000
PDIRT 2016/2025 VERÃO PONTA SECA EOLICA 30% - 2016                                                  
                                                                                                    
 ------------------NODE BLOCK----------------------
##N
##ZPT                                                                                               
PZEZER31 ZEZERE       0 0  150.4    37.0    19.5     0.0     0.0 0.0     0.0     0.0     0.0    
PSETUB31 SETUBAL      0 0  150.2   100.5    34.0     0.0     0.0 0.0     0.0     0.0     0.0    
PF.ALE31 F.ALENTEJO   0 0  150.1   -18.6    11.8     0.0     0.0 0.0     0.0     0.0     0.0    
PP.ALT31 P.ALTO       0 0  150.4   -14.0     6.8     0.0     0.0 0.0     0.0     0.0     0.0    
PTUNES31 TUNES        0 0  148.7   105.3    28.1     0.0     0.0 0.0     0.0     0.0     0.0    
PF.FER31 F.FERRO      0 0  150.4   107.3    12.6     0.0     0.0 0.0     0.0     0.0     0.0    
PPALME31 PALMELA      0 0  150.4     0.0     0.0     0.0     0.0 0.0     0.0     0.0     0.0    
PSINES31 SINES        0 0  150.2    42.6     6.2     0.0     0.0 0.0     0.0     0.0     0.0    
PVALDI31 VALDIGEM     0 0  149.9     0.0     0.0     0.0     0.0 0.0     0.0     0.0     0.0    
PSINES32 SINES        0 0  150.7     0.0     0.0     0.0     0.0 0.0     0.0     0.0     0.0    
PRIBAD31 RIBADAVE     0 0  150.7   106.2    89.5     0.0     0.0 0.0     0.0     0.0     0.0    
PPALME32 PALMELA      0 0  150.4     0.0     0.0     0.0     0.0 0.0     0.0     0.0     0.0    
PV.FRI31 V.FRIA       0 0  144.9   110.7    47.2     0.0     0.0 0.0     0.0     0.0     0.0    
PEVORA31 EVORA        0 0  150.3   -11.6     8.0     0.0     0.0 0.0     0.0     0.0     0.0    
PTRAFA31 TRAFARIA     0 0  150.3    69.7     9.2     0.0     0.0 0.0     0.0     0.0     0.0    
PFAFE_31 FAFE         0 0  148.6   111.9    36.1     0.0     0.0 0.0     0.0     0.0     0.0    
POURIQ31 OURIQUE      0 2  150.0    -7.3     0.8   -56.1     3.3 0.0     -87.5   39.4    -26.2  
PESTOI31 ESTOI        0 0  148.3    87.8    22.6     0.0     0.0 0.0     0.0     0.0     0.0    
PFALAG31 FALAGUEIRA   0 2  150.0    -2.9     8.7   -31.8    22.5 0.0     -50.0   22.5    -15.0  
POLEIR31 OLEIROS      0 0  146.5   189.3    55.6     0.0     0.0 0.0     0.0     0.0     0.0    
PERMID31 ERMIDAS      0 0  150.2     0.8     0.0     0.0     0.0 0.0     0.0     0.0     0.0    
PM.PED31 M.PEDRA      0 0  150.7     1.1    -0.2     0.0     0.0 0.0     0.0     0.0     0.0    
PSABOI31 SABOIA       0 0  150.3     0.0     0.0     0.0     0.0 0.0     0.0     0.0     0.0    
PPORTI31 PORTIMAO     0 2  150.0    25.9    12.1   -28.9    -8.1 0.0     -45.0   20.2    -13.5  
PCANIC31 CANICADA     0 2  149.4     0.0     0.0     0.0   -19.1 0.0     -62.0   29.6    -20.0  
PC.BRA31 C.BRANCO     0 0  150.2    28.0     3.1     0.0     0.0 0.0     0.0     0.0     0.0    
PPEDRA31 PEDRALVA     0 0  148.3    -0.7     0.1     0.0     0.0 0.0     0.0     0.0     0.0    
PFRADE31 FRADES       0 0  149.9     2.0    43.4     0.0     0.0 0.0     0.0     0.0     0.0    
PTAVIR31 TAVIRA       0 0  150.1     8.6    10.0     0.0     0.0 0.0     0.0     0.0     0.0    
PESTRE31 ESTREMOZ     0 0  149.6     0.0     0.0     0.0     0.0 0.0     0.0     0.0     0.0    
PZEZER21 ZEZERE       0 0  218.6   109.6    22.5     0.0     0.0 0.0     0.0     0.0     0.0    
PSACAV21 SACAVEM      0 0  220.5   135.3    16.7     0.0     0.0 0.0     0.0     0.0     0.0    
PERMES21 ERMESINDE    0 0  220.5   120.2    14.1     0.0     0.0 0.0     0.0     0.0     0.0    
PPEREI21 PEREIROS     0 0  218.8   120.8    17.5     0.0     0.0 0.0     0.0     0.0     0.0    
PPOCIN21 POCINHO      0 0  220.0    22.2     0.8     0.0     0.0 0.0     0.0     0.0     0.0    
PVERMO21 VERMOIM      0 0  220.8   135.1    75.9     0.0     0.0 0.0     0.0     0.0     0.0    
PV.CHA21 V.CHA        0 0  218.5    90.6    21.5     0.0     0.0 0.0     0.0     0.0     0.0    
PA.MIR21 A.MIRA       0 0  220.6    25.9    11.2     0.0     0.0 0.0     0.0     0.0     0.0    
PESTAR21 ESTARREJA    0 0  217.3   233.6    48.9     0.0     0.0 0.0     0.0     0.0     0.0    
PR.MAI21 R.MAIOR      0 0  219.6   121.4    36.2     0.0     0.0 0.0     0.0     0.0     0.0    
PCARRE21 CARREGADO    0 2  220.0   103.2    28.3  -319.2    22.3 0.0     -392.0  130.0   -150.0 
PVALDI21 VALDIGEM     0 0  220.0    65.3    28.4     0.0     0.0 0.0     0.0     0.0     0.0    
PCARRE22 CARREGADO    0 0  220.0     0.0     0.0     0.0     0.0 0.0     0.0     0.0     0.0    
PMOURI21 MOURISCA     0 0  216.5   199.0    87.8     0.0     0.0 0.0     0.0     0.0     0.0    
PCANEL21 CANELAS      0 0  219.3   229.3    82.3     0.0     0.0 0.0     0.0     0.0     0.0    
PFANHO21 FANHOES      0 0  220.6     0.0     0.0     0.0     0.0 0.0     0.0     0.0     0.0    
PARMAM21 ARMAMAR      0 0  219.9     0.0     0.0     0.0     0.0 0.0     0.0     0.0     0.0    
PARMAM22 ARMAMAR      0 0  219.6     0.0     0.0     0.0     0.0 0.0     0.0     0.0     0.0    
PPOMBA21 POMBAL       0 0  218.4    -7.2    20.3     0.0     0.0 0.0     0.0     0.0     0.0    
PCUSTO21 CUSTOIAS     0 0  220.5    93.6     9.3     0.0     0.0 0.0     0.0     0.0     0.0    
PPICOT21 PICOTE       0 2  220.0     0.0     0.0     0.3    29.2 0.0     -310.0  93.0    -151.0 
PCARRI21 CARRICHE     0 0  220.4   144.1    19.7     0.0     0.0 0.0     0.0     0.0     0.0    
PTRAJO21 TRAJOUCE     0 0  219.8   172.0    31.4     0.0     0.0 0.0     0.0     0.0     0.0    
PRECAR21 RECAREI      0 0  220.1   127.3    42.7     0.0     0.0 0.0     0.0     0.0     0.0    
PS.RIO21 S.RIOS       0 0  220.4   158.5    27.7     0.0     0.0 0.0     0.0     0.0     0.0    
PA.S.J21 A.S.JOAO     0 0  220.9    62.6     5.8     0.0     0.0 0.0     0.0     0.0     0.0    
PTORRA21 TORRAO       0 2  219.9    57.6    14.8     0.2   -35.2 70.0    -70.0   35.0    -38.0  
PREGUA21 REGUA        0 2  220.0     0.0     0.0   -16.9    -6.9 0.0     -120.0  52.0    -52.0  
PFERRO21 FERRO        0 0  220.5    27.8     0.8     0.0     0.0 0.0     0.0     0.0     0.0    
PMOGAD21 MOGADOURO    0 0  220.3   -19.2    -2.0     0.0     0.0 0.0     0.0     0.0     0.0    
PSANTA21 SANTAREM     0 0  219.2    34.1    17.7     0.0     0.0 0.0     0.0     0.0     0.0    
PCHAFA21 CHAFARIZ     0 0  219.4    21.3     7.5     0.0     0.0 0.0     0.0     0.0     0.0    
PCARRA21 CARRAPATELO  0 2  219.5     2.6     5.1     0.2   -50.2 0.0     -134.0  40.0    -54.0  
PURRO_21 URRO         0 0  220.1     0.4    -0.2     0.0     0.0 0.0     0.0     0.0     0.0    
PPRELA21 PRELADA      0 0  220.6    96.5    15.4     0.0     0.0 0.0     0.0     0.0     0.0    
PPARAI21 PARAIMO      0 0  218.1     0.0     0.0     0.0     0.0 0.0     0.0     0.0     0.0    
PPENEL21 PENELA       0 0  218.6     6.6    29.9     0.0     0.0 0.0     0.0     0.0     0.0    
PC.BRA21 C.BRANCO     0 0  220.5     0.0     0.0     0.0     0.0 0.0     0.0     0.0     0.0    
PM.CAV21 M.CAVALEIROS 0 0  220.1    23.5    -6.5     0.0     0.0 0.0     0.0     0.0     0.0    
PCARVO21 CARVOEIRA    0 0  218.1    77.9    30.2     0.0     0.0 0.0     0.0     0.0     0.0    
PV.P.A21 V.P.AGUIAR   0 0  220.0     0.5     3.3     0.0     0.0 0.0     0.0     0.0     0.0    
PZAMBU21 ZAMBUJAL     0 0  220.6    86.0    12.2     0.0     0.0 0.0     0.0     0.0     0.0    
PLAGOA21 LAGOACA      0 0  220.5     0.0     0.0     0.0     0.0 0.0     0.0     0.0     0.0    
PTABUA21 TABUA        0 0  218.8    17.7     6.5     0.0     0.0 0.0     0.0     0.0     0.0    
PVALPA21 VALPACOS     0 0  220.0    24.9     7.6     0.0     0.0 0.0     0.0     0.0     0.0    
PFUNDA21 FUNDAO       0 0  220.7     0.0     0.0     0.0     0.0 0.0     0.0     0.0     0.0    
PF.ALE11 F.ALENTEJO   0 0  400.7     0.0     0.0     0.0     0.0 0.0     0.0     0.0     0.0    
PVERMO11 VERMOIM      0 0  390.7   130.1    15.9     0.0     0.0 0.0     0.0     0.0     0.0    
PA.MIR11 A.MIRA       0 0  400.0   163.5    23.1     0.0     0.0 0.0     0.0     0.0     0.0    
PBATAL11 BATALHA      0 0  399.1   229.4    86.2     0.0     0.0 0.0     0.0     0.0     0.0    
PF.FER11 F.FERRO      0 0  401.5     0.0     0.0     0.0     0.0 0.0     0.0     0.0     0.0    
PR.MAI11 R.MAIOR      0 0  400.2     0.0     0.0     0.0     0.0 0.0     0.0     0.0     0.0    
PPALME11 PALMELA      0 0  401.6     0.0     0.0     0.0     0.0 0.0     0.0     0.0     0.0    
PSINES11 SINES        0 3  400.0     0.0     0.0   101.2   131.7 400.0   -400.0  100.0   -100.0 
PRIBAD11 RIBADAVE     0 0  390.8   179.5    56.4     0.0     0.0 0.0     0.0     0.0     0.0    
PRIBAD12 RIBADAVE     0 0  390.8     0.0     0.0     0.0     0.0 0.0     0.0     0.0     0.0    
PFANHO11 FANHOES      0 0  400.1   100.0    39.1     0.0     0.0 0.0     0.0     0.0     0.0    
PARMAM11 ARMAMAR      0 0  399.1     0.0     0.0     0.0     0.0 0.0     0.0     0.0     0.0    
PV.MIN11 V.MINHO      0 2  397.2     0.0     0.0     0.7  -260.3 620.0   -610.0  185.0   -275.0 
PFEIRA11 FEIRA        0 0  393.6   133.3    45.3     0.0     0.0 0.0     0.0     0.0     0.0    
PRECAR11 RECAREI      0 0  392.7     0.0     0.0     0.0     0.0 0.0     0.0     0.0     0.0    
PRECAR12 RECAREI      0 0  392.7     0.0     0.0     0.0     0.0 0.0     0.0     0.0     0.0    
PV.N.F11 V.N.FAMA     0 0  392.6     0.0     0.0     0.0     0.0 0.0     0.0     0.0     0.0    
PLAVOS11 LAVOS        0 2  400.0    59.5    18.1  -348.9   -24.3 0.0     -870.0  270.0   -510.0 
PDIVOR11 DIVOR        0 0  404.3    10.1     3.1     0.0     0.0 0.0     0.0     0.0     0.0    
PA.LIN11 A.LINDOSO    0 2  387.7     0.0     0.0   -19.6  -139.3 0.0     -315.0  100.0   -150.0 
PALCOC11 ALCOCHETE    0 0  401.5    48.0    11.5     0.0     0.0 0.0     0.0     0.0     0.0    
PFALAG11 FALAGUEIRA   0 0  402.8     0.0     0.0     0.0     0.0 0.0     0.0     0.0     0.0    
PPEGOE11 PEGOES       0 0  402.5     0.0     0.0     0.0     0.0 0.0     0.0     0.0     0.0    
PPEGO_11 PEGO         0 2  400.0     0.0     0.0  -735.0   176.3 0.0     -838.0  270.0   -510.0 
PRIBAT11 RIBATEJO     0 2  400.0     0.0     0.0  -678.2   137.7 0.0     -784.0  260.0   -300.0 
PPARAI11 PARAIMO      0 0  398.4    97.8    24.2     0.0     0.0 0.0     0.0     0.0     0.0    
PPORTI11 PORTIMAO     0 0  402.2     0.0     0.0     0.0     0.0 0.0     0.0     0.0     0.0    
PBODIO11 BODIOSA      0 0  399.0    57.9    17.8     0.0     0.0 0.0     0.0     0.0     0.0    
PPEDRA11 PEDRALVA     0 0  393.7     0.0     0.0     0.0     0.0 0.0     0.0     0.0     0.0    
PALQUE11 ALQUEVA      0 2  400.0   -81.2     8.1     0.4   105.7 360.0   -381.0  141.0   -181.0 
PLAGOA11 LAGOACA      0 0  400.7     0.0     0.0     0.0     0.0 0.0     0.0     0.0     0.0    
PTAVIR11 TAVIRA       0 2  402.0     0.0     0.0  -128.3    90.0 0.0     -200.0  90.0    -60.0  
PESTRE11 ESTREMOZ     0 0  404.6     0.7     5.4     0.0     0.0 0.0     0.0     0.0     0.0    
PR.PEN11 R.PENA       0 0  397.4     0.0     0.0     0.0     0.0 0.0     0.0     0.0     0.0    
PFUNDA11 FUNDAO       0 0  403.7     0.0     0.0     0.0     0.0 0.0     0.0     0.0     0.0    
PPEDRA41 PEDRALVA     0 0  132.4    32.4     1.0     0.0     0.0 0.0     0.0     0.0     0.0    
PV.NOV31 V.NOVA       0 2  150.0     0.0     0.0     0.2   -17.0 0.0     -144.0  41.0    -51.0  
PC.SAL31 C.SALAMONDE  0 2  150.0     0.0     0.0     0.0   -15.6 0.0     -42.0   10.0    -28.0  
PCABRI31 CABRIL       0 2  150.0     0.0     0.0     0.0     0.3 0.0     -54.0   15.0    -30.0  
PBOUCA31 BOUCA        0 2  150.0     0.0     0.0     0.0    10.4 0.0     -22.0   12.0    -13.0  
PA.RAB31 A.RABAGAO    0 2  150.0     0.0     0.0     0.0    -2.9 62.0    -68.0   50.0    -44.0  
PC.TAB31 C.TABUACO    0 2  150.0     0.0     0.0     0.0    -0.9 0.0     -29.0   8.0     -24.0  
PV.FUR31 V.FURNAS     0 2  150.0     0.0     0.0     0.2   -28.5 80.0    -125.0  79.0    -71.0  
PFRATE31 FRATEL       0 2  150.0     0.0     0.0     0.1     1.7 0.0     -88.0   24.0    -26.0  
PC.FRA31 C.FRADES     0 2  150.0     0.0     0.0     0.3   -60.5 192.0   -192.0  92.0    -88.0  
PCD-RA31 CD-RA-FRD    0 0  149.4     0.0     0.0     0.0     0.0 0.0     0.0     0.0     0.0    
PCOS-M31 COS-MGR-BRV  0 0  150.5     0.0     0.0     0.0     0.0 0.0     0.0     0.0     0.0    
PC.BOD21 C.BODE       0 2  218.6     0.0     0.0   -15.9   -24.4 0.0     -53.0   16.0    -27.0  
PC.BOD22 C.BODE       0 2  218.6     0.0     0.0     0.1   -24.9 0.0     -53.0   16.0    -27.0  
PC.BOD23 C.BODE       0 0  218.6     0.0     0.0     0.0     0.0 0.0     0.0     0.0     0.0    
PMIRAN21 MIRANDA      0 2  220.0     0.0     0.0     0.2     2.0 0.0     -249.0  84.0    -124.0 
PBEMPO21 BEMPOSTA     0 2  220.0     0.0     0.0     0.2    23.2 0.0     -160.0  54.0    -50.0  
PTG-CN21 TG-CN-EJ     0 0  219.5     0.0     0.0     0.0     0.0 0.0     0.0     0.0     0.0    
PVALEI21 VALEIRA      0 2  220.0     0.0     0.0   -79.5    20.8 0.0     -160.0  68.0    -62.0  
PAGUIE21 AGUIEIRA     0 2  220.0     0.0     0.0     0.3   -36.6 184.0   -224.0  92.0    -88.0  
PC.POC21 C.POCINHO    0 2  220.0     0.0     0.0   -61.5    -1.8 0.0     -124.0  20.0    -20.0  
PPI-VG21 PI-VG-AMM    0 0  219.9     0.0     0.0     0.0     0.0 0.0     0.0     0.0     0.0    
PB.SAB21 B.SABOR      0 2  220.0     0.0     0.0     0.0     0.7 77.0    -77.0   47.0    -39.0  
PPR-RM21 PR-RM2-PB    0 0  218.5     0.0     0.0     0.0     0.0 0.0     0.0     0.0     0.0    
PFN-AM21 FN-AM3-CH    0 0  220.5     0.0     0.0     0.0     0.0 0.0     0.0     0.0     0.0    
PAM-CH21 AM-CH-TJ     0 0  220.5     0.0     0.0     0.0     0.0 0.0     0.0     0.0     0.0    
PRR-VM21 RR-VM2-ED    0 0  220.5     0.0     0.0     0.0     0.0 0.0     0.0     0.0     0.0    
PVG-VM21 VG-VM4-ED    0 0  220.6     0.0     0.0     0.0     0.0 0.0     0.0     0.0     0.0    
PPNC-F21 PNC-FE-RA    0 0  220.0     0.0     0.0     0.0     0.0 0.0     0.0     0.0     0.0    
PT.OUT21 T.OUTEIRO    0 2  220.0     0.0     0.0  -588.3   -23.2 0.0     -1032.0 372.0   -450.0 
PRR-CN21 RR-CN-TG     0 0  220.0     0.0     0.0     0.0     0.0 0.0     0.0     0.0     0.0    
PPP-TB21 PP-TBA-FL    0 0  219.0     0.0     0.0     0.0     0.0 0.0     0.0     0.0     0.0    
PVG-AM21 VG-AMM1-S    0 0  219.9     0.0     0.0     0.0     0.0 0.0     0.0     0.0     0.0    
PBEMPO11 BEMPOSTA2    0 2  400.0     0.0     0.0     0.2    37.4 0.0     -203.0  77.0    -99.0  
PPM-SN11 PM-SN3-FN    0 0  405.0     0.0     0.0     0.0     0.0 0.0     0.0     0.0     0.0    
PPEDRS11 PEDRS        0 0  399.1     0.0     0.0    -1.9     0.0 0.0     0.0     0.0     0.0    
PF.TUA11 F.TUA        0 2  400.0     0.0     0.0     0.1   -17.8 134.2   -134.2  117.4   -117.4 
PFALAG12 FALAGUEIRA   0 0  402.2     0.0     0.0     0.0     0.0 0.0     0.0     0.0     0.0    
PFALAG13 FALAGUEIRA   0 0  402.2     0.0     0.0     0.0     0.0 0.0     0.0     0.0     0.0    
PPEDRA12 PEDRALVA     0 0  395.1     0.0     0.0     0.0     0.0 0.0     0.0     0.0     0.0    
PPEDRA13 PEDRALVA     0 0  395.1     0.0     0.0     0.0     0.0 0.0     0.0     0.0     0.0    
XCA_AL11 XCA_AL11     0 0  384.0  -433.7   230.3     0.0     0.0 0.0     0.0     0.0     0.0    
XCA_AL12 XCA_AL12     0 0  384.0  -433.7   230.3     0.0     0.0 0.0     0.0     0.0     0.0    
XCE_FR11 XCE_FR11     0 0  402.7  -138.2    22.6     0.0     0.0 0.0     0.0     0.0     0.0    
XSA_PN21 XSA_PN21     0 0  219.9   -94.3    18.6     0.0     0.0 0.0     0.0     0.0     0.0    
XAL_PN22 XAL_PN22     0 0  220.1  -131.2    19.5     0.0     0.0 0.0     0.0     0.0     0.0    
XBR_AV11 XBR_AV11     0 0  402.1   -50.6   -48.4     0.0     0.0 0.0     0.0     0.0     0.0    
XPU_TV11 XPU_TV11     0 0  404.0  -135.3   -61.3     0.0     0.0 0.0     0.0     0.0     0.0    
XAL_PN21 XAL_PN21     0 0  220.1  -132.8    19.9     0.0     0.0 0.0     0.0     0.0     0.0    
XAL_LG11 XAL_LG11     0 0  400.8  -672.7     7.1     0.0     0.0 0.0     0.0     0.0     0.0    
PN.COR31 N.CORVO      0 0  148.6    40.1    10.8     0.0     0.0 0.0     0.0     0.0     0.0    
PQ.ANJ31 Q.ANJO       0 0  150.3    16.7     3.8     0.0     0.0 0.0     0.0     0.0     0.0    
PPEGOE31 PEGOES       0 0  150.4     3.5     0.3     0.0     0.0 0.0     0.0     0.0     0.0    
PPEGOE32 PEGOES       0 0  150.5     0.0     0.0     0.0     0.0 0.0     0.0     0.0     0.0    
PFOGUE31 FOGUETEIRO   0 0  150.4     3.4     0.5     0.0     0.0 0.0     0.0     0.0     0.0    
PQ.GRA31 Q.GRANDE     0 0  150.5     1.4     0.2     0.0     0.0 0.0     0.0     0.0     0.0    
PRODAO31 RODAO        0 0  150.1     0.0    -0.3     0.0     0.0 0.0     0.0     0.0     0.0    
PLUZIA31 LUZIANES     0 0  150.3     0.0    -0.2     0.0     0.0 0.0     0.0     0.0     0.0    
PLUSOS31 LUSOSIDE     0 0  150.4     0.0     0.0     0.0     0.0 0.0     0.0     0.0     0.0    
PRODAO32 RODAO        0 0  150.1     0.0     0.0     0.0     0.0 0.0     0.0     0.0     0.0    
PCOG-A31 COG-ATS      0 0  150.2     5.3     0.9   -16.8     0.0 0.0     0.0     0.0     0.0    
PPEAF_31 PEAF         0 0  148.7     0.0     0.0    -3.4     0.0 0.0     0.0     0.0     0.0    
PPEMGR31 PEMGR        0 0  150.5     0.0     0.0    -0.4     0.0 0.0     0.0     0.0     0.0    
PPENI_31 PENI         0 0  150.8     0.0     0.0    -5.4     0.0 0.0     0.0     0.0     0.0    
PPEBRV31 PEBRV        0 0  150.5     0.0     0.0    -0.8     0.0 0.0     0.0     0.0     0.0    
PPEGU_31 PEGU         0 0  150.4     0.0     0.0    -5.9     0.0 0.0     0.0     0.0     0.0    
PPEAM_31 PEAM         0 0  148.6     0.0     0.0    -5.0     0.0 0.0     0.0     0.0     0.0    
PCOG-C31 COG-CSNC     0 0  150.2    35.4     4.7   -68.4     0.0 0.0     0.0     0.0     0.0    
PMAIA_21 MAIA         0 0  220.0    78.0    10.2     0.0     0.0 0.0     0.0     0.0     0.0    
PGOUVE21 GOUVEIA      0 0  218.8     0.0     0.0     0.0     0.0 0.0     0.0     0.0     0.0    
PMORTA21 MORTAGUA     0 0  220.0     0.0     0.0     0.0     0.0 0.0     0.0     0.0     0.0    
PMORTA22 MORTAGUA     0 0  218.9     0.0     0.0     0.0     0.0 0.0     0.0     0.0     0.0    
PSOBRA21 SOBRAL       0 0  219.8     0.0     0.0     0.0     0.0 0.0     0.0     0.0     0.0    
PGOUVE22 GOUVEIA      0 0  218.8     0.0     0.0     0.0     0.0 0.0     0.0     0.0     0.0    
PSOBRA22 SOBRAL       0 0  219.8     0.0     0.0     0.0     0.0 0.0     0.0     0.0     0.0    
PSEIXA21 SEIXAL       0 0  220.4     0.0     0.0     0.0     0.0 0.0     0.0     0.0     0.0    
PFATEL21 FATELA       0 0  220.8     0.0     0.0     0.0     0.0 0.0     0.0     0.0     0.0    
PFATEL22 FATELA       0 0  220.6     0.0     0.0     0.0     0.0 0.0     0.0     0.0     0.0    
PPEPP_21 PEPP         0 0  219.0     0.0     0.0   -12.7     0.0 0.0     0.0     0.0     0.0    
PPENC_21 PENC         0 0  220.0     0.0     0.0   -12.0     0.0 0.0     0.0     0.0     0.0    
PPEVAL21 PEVALDIGEM   0 2  219.9     0.0     0.0    -4.1     0.0 0.0     -253.2  50.6    0.0    
PPEBR_21 PEBR         0 2  219.0     0.0     0.0   -12.9     0.0 0.0     -100.8  20.2    0.0    
PPERA_21 PERA         0 2  220.0     0.0     0.0    -6.5    18.6 0.0     -128.8  25.8    0.0    
PPEV.P21 PEV.P.AGUIAR 0 2  220.0     0.0     0.0    -8.8    14.2 0.0     -165.6  33.1    0.0    
PPETTC21 PETTC        0 0  219.0     0.0     0.0    -9.1     0.0 0.0     0.0     0.0     0.0    
PPEVGR21 PEVGR        0 0  219.0     0.0     0.0    -1.7     0.0 0.0     0.0     0.0     0.0    
##C
 
---------------------LINE BLOCK--------------------
 
##L
PZEZER31 PBOUCA31 1 0 4.5158 15.450 98.00000    473
PZEZER31 PBOUCA31 2 0 4.5315 15.462 99.06666    473
PSETUB31 PPALME31 1 0 0.3285 1.7708 11.77777   1001
PSETUB31 PPALME31 2 0 0.3285 1.7302 11.55555   1001
PSETUB31 PPALME31 3 0 0.3195 1.7122 11.37777    624
PF.ALE31 PEVORA31 1 0 4.7205 25.128 168.9333    955
PF.ALE31 POURIQ31 1 0 5.5012 18.373 122.0888    716
PF.ALE31 PERMID31 1 0 1.7483 10.712 72.88888   1001
PP.ALT31 PPALME31 1 0 4.5900 15.592 98.22222    716
PP.ALT31 PPALME31 2 0 4.5225 15.439 97.95555    716
PP.ALT31 PQ.GRA31 1 8 4.3470 14.634 95.55555    477
PP.ALT31 PQ.GRA31 2 0 4.8870 17.235 103.0222    316
PTUNES31 POURIQ31 1 0 6.3518 23.744 179.9555    785
PTUNES31 PESTOI31 1 0 4.3942 19.734 142.8444   1001
PTUNES31 PPORTI31 1 8 3.4087 11.126 77.55555    785
PTUNES31 PPORTI31 2 0 3.4087 11.126 77.55555    785
PTUNES31 PPORTI31 3 0 1.2398 12.971 160.4000   1001
PTUNES31 PTAVIR31 1 0 5.2515 27.029 197.1111   1001
PF.FER31 PPALME31 2 0 1.7730 9.1102 66.93333   1001
PF.FER31 PPALME32 1 0 1.7730 9.1102 66.93333   1001
PF.FER31 PTRAFA31 1 0 1.6763 5.4923 38.00000    785
PF.FER31 PTRAFA31 2 0 1.6763 5.4923 38.00000    785
PF.FER31 PTRAFA31 3 0 0.8550 5.3302 838.0000   1001
PF.FER31 PTRAFA31 4 0 0.8550 5.3302 838.0000   1001
PF.FER31 PQ.ANJ31 1 0 0.9495 4.8667 36.04444   1001
PF.FER31 PFOGUE31 1 0 0.5693 1.7685 12.08888    316
PF.FER31 PFOGUE31 2 8 0.5693 1.7685 12.08888    316
PF.FER31 PLUSOS31 4 0 0.3578 1.8360 13.46666    982
PPALME31 PPALME32 1 0 0.000  0.0315 0.00000    6001
PPALME31 PQ.ANJ31 1 0 0.9180 4.7070 34.62222   1001
PPALME31 PPEGOE31 1 0 2.0475 6.9637 44.13333    712
PPALME31 PLUSOS31 4 0 1.4940 7.6590 56.57777    982
PSINES31 PSINES32 1 8 0.000  0.0315 0.00000    6001
PSINES31 POURIQ31 2 0 4.8465 24.597 183.3777    955
PSINES31 PERMID31 1 8 2.1915 13.428 91.33333   1001
PSINES31 PSABOI31 1 0 7.5037 24.558 170.0888    785
PSINES31 PPORTI31 2 0 11.814 38.637 268.0888    785
PSINES31 PCOG-A31 1 0 0.4140 2.1465 15.20000    500
PSINES31 PCOG-A31 2 0 0.4140 2.1465 15.20000    500
PSINES31 PCOG-C31 1 0 0.6345 2.6033 121.2000    500
PVALDI31 PC.TAB31 1 0 1.8878 8.0685 51.86666    250
PSINES32 POURIQ31 1 0 4.8465 24.597 183.3777    955
PSINES32 PM.PED31 1 0 6.0773 21.546 134.9777    785
PRIBAD31 PFAFE_31 1 0 3.7305 15.275 103.2444    785
PRIBAD31 PFAFE_31 2 0 2.0250 12.870 110.2222   1051
PRIBAD31 POLEIR31 1 0 3.6855 14.519 97.37777    473
PRIBAD31 PCD-RA31 1 0 4.9545 13.367 89.20000    416
PPALME32 PPEGOE32 1 0 2.1667 7.2450 47.77777    735
PV.FRI31 POLEIR31 1 0 2.9137 9.2812 66.75555    473
PV.FRI31 POLEIR31 2 0 2.9093 9.2498 67.02222    473
PV.FRI31 PPEDRA31 2 0 4.9320 17.559 112.5777    785
PEVORA31 PPEGOE31 1 0 9.9315 33.777 214.0444    712
PFAFE_31 PCANIC31 1 0 3.2422 13.650 92.44444    785
PFAFE_31 PPEAF_31 1 0 2.3760 12.235 88.84444    816
POURIQ31 PTAVIR31 1 0 2.9812 14.035 277.2444   1432
POURIQ31 PN.COR31 1 0 2.7270 9.2610 58.84444    473
PESTOI31 PTAVIR31 1 8 2.6662 13.803 99.86666   1001
PESTOI31 PTAVIR31 2 0 2.6662 13.803 99.86666   1001
PESTOI31 PTAVIR31 3 0 3.5550 16.818 121.3333   1001
PFALAG31 PC.BRA31 3 0 1.3230 13.983 172.0444   2002
PFALAG31 PESTRE31 1 8 2.6190 28.485 308.7555   1001
PFALAG31 PFRATE31 1 0 0.9810 3.3075 21.77777    751
PFALAG31 PCOS-M31 1 0 2.7900 14.645 102.8444   1293
PFALAG31 PRODAO31 1 0 1.2443 6.4305 46.35555    955
PFALAG31 PRODAO32 2 0 1.2443 6.4305 46.35555    955
POLEIR31 PPEDRA31 1 0 2.3962 7.8210 54.17777    785
POLEIR31 PPEDRA31 2 0 2.4053 7.8480 54.35555    785
POLEIR31 PPEDRA31 3 0 1.1340 6.0525 67.37777    955
PM.PED31 PPEGOE32 1 0 2.8440 9.8033 64.80000    735
PSABOI31 PPORTI31 1 0 4.3223 14.118 98.22222    785
PSABOI31 PLUZIA31 1 0 1.0553 3.2715 25.37777    674
PSABOI31 PLUZIA31 2 8 1.0553 3.2715 25.37777    674
PCANIC31 PPEDRA31 1 0 1.6402 5.3617 37.06666    785
PCANIC31 PPEDRA31 2 0 1.6402 5.3617 37.06666    785
PCANIC31 PPEDRA31 3 0 1.6470 6.3652 42.04444    785
PCANIC31 PFRADE31 1 0 0.5850 6.1290 72.88888    785
PCANIC31 PC.SAL31 1 0 0.8055 5.4158 40.00000   1001
PCANIC31 PV.FUR31 1 0 0.9067 3.0825 19.55555    473
PCANIC31 PCD-RA31 1 0 0.0203 0.2093 2.488889   1120
PC.BRA31 PRODAO31 1 0 1.9732 10.237 73.64444    955
PC.BRA31 PRODAO32 2 0 1.9732 10.237 73.64444    955
PC.BRA31 PPEGU_31 1 0 2.4547 12.874 90.48888    878
PPEDRA31 PFRADE31 1 0 1.2757 10.860 111.3333   1028
PPEDRA31 PPEAM_31 1 0 4.2052 22.923 147.5555   2025
PPEDRA31 PPEAM_31 2 0 4.2052 22.923 147.5555   2025
PFRADE31 PV.NOV31 1 0 0.1845 1.2645 8.888889   1001
PFRADE31 PA.RAB31 1 0 1.8675 6.4800 41.68888    500
PFRADE31 PC.FRA31 1 0 0.0518 0.3623 2.488889   1001
PFRADE31 PCD-RA31 1 0 1.1340 7.6095 56.31111   1120
PZEZER21 PSANTA21 1 0 4.0462 22.191 142.2520    955
PZEZER21 PSANTA21 2 0 4.0462 22.191 142.2520    955
PZEZER21 PPENEL21 1 0 3.8284 20.647 134.6694    955
PZEZER21 PPENEL21 2 0 3.8284 20.647 134.6694    955
PZEZER21 PC.BOD21 1 0 0.0532 0.2904 1.942149    501
PZEZER21 PC.BOD22 2 0 0.0871 0.2952 1.900826    501
PZEZER21 PC.BOD23 3 0 0.0871 0.2952 1.900826    501
PSACAV21 PCARRE21 1 0 2.3958 12.593 184.4628   1000
PSACAV21 PCARRE21 2 0 2.3377 12.429 180.2479   1000
PSACAV21 PFANHO21 2 0 1.1035 5.4740 140.0000   1000
PSACAV21 PFANHO21 3 0 1.6117 8.5281 155.1446   1003
PSACAV21 PA.S.J21 1 0 0.8131 6.1468 743.2851   1294
PERMES21 PRR-VM21 1 0 0.3146 1.3262 201.9834   1294
PERMES21 PVG-VM21 2 0 0.3098 1.3165 197.7685   1294
PPEREI21 PR.MAI21 1 0 8.2086 44.455 292.0041   1050
PPEREI21 PPARAI21 1 0 3.3444 18.009 119.8140    955
PPEREI21 PPARAI21 2 0 3.3251 18.029 117.1694   1000
PPEREI21 PPENEL21 1 0 0.8857 4.8690 123.0785   1908
PPEREI21 PTABUA21 2 0 3.1847 17.651 110.1652   1000
PPEREI21 PAGUIE21 1 0 2.3426 12.748 83.59504    622
PPEREI21 PPR-RM21 2 0 2.7249 15.187 94.21487   1000
PPEREI21 PMORTA21 2 0 2.2796 12.400 81.28099    522
PPEREI21 PMORTA22 1 0 1.4472 8.0247 49.83471   1003
PPOCIN21 PARMAM22 1 0 4.2302 23.440 150.2479   1050
PPOCIN21 PCHAFA21 1 0 4.7674 26.707 164.9173    955
PPOCIN21 PCHAFA21 2 0 4.5690 26.324 164.7727    955
PPOCIN21 PC.POC21 1 0 0.0823 0.4404 2.789256    622
PPOCIN21 PB.SAB21 1 0 1.0358 7.5746 59.44214   1152
PPOCIN21 XSA_PN21 1 0 1.1640 6.4614 40.70247    971
PPOCIN21 XAL_PN22 1 0 1.5391 8.7798 57.47933   1050
PPOCIN21 XAL_PN21 1 0 1.5246 8.6733 56.77686   1050
PVERMO21 PCUSTO21 1 0 0.7018 4.0898 30.26859   1000
PVERMO21 PCUSTO21 2 0 0.3775 2.6426 18.63636   1000
PVERMO21 PRECAR21 1 0 1.5391 8.0344 57.80991   1000
PVERMO21 PPRELA21 1 0 0.4066 2.7685 20.55785   1118
PVERMO21 PPRELA21 2 0 0.8228 1.8682 746.5495   1294
PVERMO21 PRR-VM21 2 0 0.2468 2.6136 32.74793   2000
PVERMO21 PVG-VM21 4 0 0.2517 2.6378 32.66528   2000
PV.CHA21 PTABUA21 1 0 2.1683 12.066 74.73140   1050
PV.CHA21 PTABUA21 2 0 2.1683 12.071 74.77272   1050
PV.CHA21 PGOUVE21 1 0 0.9148 5.1062 31.50826   1000
PV.CHA21 PGOUVE22 2 0 0.9051 5.0288 31.50826   1000
PA.MIR21 PS.RIO21 1 0 0.5856 2.8266 375.0826   1294
PA.MIR21 PS.RIO21 2 0 1.0164 2.3038 922.1694   1294
PA.MIR21 PZAMBU21 1 0 0.5469 1.5536 715.9504   1170
PA.MIR21 PZAMBU21 2 0 0.5469 1.5488 713.0371   1170
PA.MIR21 PFN-AM21 3 0 0.5421 2.8798 19.21487   1000
PA.MIR21 PAM-CH21 1 0 0.0290 0.1404 0.909091   1236
PESTAR21 PMOURI21 1 0 1.9166 10.352 68.40909    955
PESTAR21 PCARRA21 2 0 3.8914 20.066 145.4132   1000
PESTAR21 PCARRA21 3 0 1.5052 14.907 195.4752   2354
PESTAR21 PTG-CN21 1 0 2.4394 13.000 87.47933   1000
PR.MAI21 PCARRE21 1 0 3.1460 16.988 108.8842   1000
PR.MAI21 PCARRE21 3 0 2.9718 15.270 111.9214   1000
PR.MAI21 PCARRE22 2 0 2.9427 15.192 111.9834   1000
PR.MAI21 PCARVO21 1 0 2.8362 15.792 98.65702   1050
PR.MAI21 PPR-RM21 2 0 5.7257 31.866 197.9545   1000
PCARRE21 PCARRE22 1 0 0.000  0.0678 0.00000    5999
PCARRE21 PSANTA21 1 0 2.6620 14.616 93.65702    955
PCARRE21 PSANTA21 2 0 2.6620 14.616 93.65702    955
PCARRE21 PSEIXA21 1 8 4.4189 23.657 155.5991    955
PVALDI21 PRECAR21 1 0 4.9755 26.077 185.0000   1050
PVALDI21 PREGUA21 1 0 0.1646 0.8809 5.888430    622
PVALDI21 PCARRA21 1 0 2.5410 13.968 91.52892    622
PVALDI21 PURRO_21 1 0 3.8188 20.100 141.6528   1050
PVALDI21 PV.P.A21 1 0 3.4848 19.021 123.1404   1050
PVALDI21 PV.P.A21 2 0 3.4848 19.021 123.1404   1050
PVALDI21 PPI-VG21 1 0 0.2420 2.1296 25.95041   2000
PVALDI21 PVG-VM21 4 0 1.8876 19.747 244.2768   2000
PVALDI21 PVG-AM21 1 0 0.3630 4.0172 43.07851   1968
PCARRE22 PFANHO21 2 0 1.9796 10.749 68.76033   1050
PMOURI21 PCARRA21 1 0 5.3288 27.776 197.0041   1000
PMOURI21 PPARAI21 1 0 1.7037 9.1331 61.38429    955
PMOURI21 PPARAI21 2 0 1.6940 9.1428 59.91735   1000
PCANEL21 PRECAR21 1 0 0.8180 4.2205 123.1404   2000
PCANEL21 PTG-CN21 1 0 0.1791 2.3910 40.33057   3149
PCANEL21 PRR-CN21 3 0 0.3388 4.5254 76.32231   2000
PFANHO21 PCARRI21 1 0 1.5052 8.0489 54.02892   1000
PFANHO21 PCARRI21 2 0 1.2197 6.6647 42.60330   1000
PFANHO21 PTRAJO21 1 0 0.7841 6.8680 125.8264   2000
PFANHO21 PA.S.J21 1 0 1.8682 6.8438 925.4752   1294
PFANHO21 PFN-AM21 3 0 0.8664 4.5738 31.79752   1000
PARMAM21 PARMAM22 1 8 0.000  0.0678 0.00000    5999
PARMAM21 PCARRA21 2 0 3.4461 18.193 132.3966   1050
PARMAM21 PVALEI21 1 0 2.3474 12.332 86.26033   1000
PARMAM21 PVALEI21 2 0 2.3474 12.327 86.32231   1000
PARMAM21 PPI-VG21 1 0 0.0774 0.6873 8.347107   2165
PARMAM21 PVG-AM21 1 0 0.0097 0.1113 1.136364   1968
PARMAM22 PCARRA21 1 0 3.4412 18.164 132.2107   1050
PPOMBA21 PPR-RM21 1 0 0.2759 1.5052 9.690083    501
PCUSTO21 PPRELA21 1 0 0.3775 2.6378 18.59504   1118
PCUSTO21 PMAIA_21 1 0 0.9293 5.2562 38.49173   1000
PPICOT21 PMOGAD21 1 0 1.9941 10.444 72.72727   1000
PPICOT21 PLAGOA21 1 0 3.0540 17.007 107.0661   1050
PPICOT21 PLAGOA21 2 0 3.0782 18.866 129.1115   1050
PPICOT21 PMIRAN21 1 0 1.1471 6.3501 39.77272    601
PPICOT21 PMIRAN21 2 0 0.9148 6.2726 43.47107   1118
PPICOT21 PBEMPO21 1 0 1.4956 8.3345 51.98347   1050
PCARRI21 PS.RIO21 1 0 0.2372 0.8567 463.1818    955
PCARRI21 PFN-AM21 3 0 0.1984 1.0842 7.024793   1000
PCARRI21 PAM-CH21 1 0 0.5856 3.0686 21.13636   1000
PTRAJO21 PCARVO21 1 0 3.4800 19.398 121.0123   1000
PTRAJO21 PAM-CH21 1 0 0.6970 3.7704 24.17355   1000
PRECAR21 PTORRA21 1 0 1.6988 8.5378 58.71900   1000
PRECAR21 PURRO_21 1 0 1.2052 6.2872 44.97933   1000
PRECAR21 PRR-VM21 2 0 0.2904 3.0540 38.11983   2000
PRECAR21 PT.OUT21 1 0 0.2033 2.7249 44.46281   2501
PRECAR21 PRR-CN21 3 0 0.1888 2.5168 42.76859   2000
PRECAR21 PMAIA_21 1 0 1.2197 6.3210 45.59917   1000
PTORRA21 PCARRA21 1 0 0.9874 5.3095 35.28925   1000
PFERRO21 PFUNDA21 1 0 0.9680 5.1304 33.88429   1000
PFERRO21 PPNC-F21 1 8 1.9360 10.294 68.59504   1430
PFERRO21 PSOBRA21 1 0 3.5429 20.884 157.3760    987
PFERRO21 PSOBRA22 2 0 3.5477 20.894 157.4586    987
PFERRO21 PFATEL21 1 8 1.0261 5.3288 38.34710    971
PFERRO21 PFATEL22 2 0 1.0261 5.3288 38.34710    971
PMOGAD21 PVALEI21 1 0 5.7741 32.369 199.4008   1000
PCHAFA21 PGOUVE21 1 0 1.7618 9.8300 60.61983   1000
PCHAFA21 PSOBRA21 1 0 1.2342 7.2745 54.83471    987
PCHAFA21 PGOUVE22 2 0 1.7472 9.7187 60.90909   1000
PCHAFA21 PSOBRA22 2 0 1.2342 7.2745 54.83471    987
PPARAI21 PPI-VG21 1 0 4.1769 37.616 434.7933   2000
PPENEL21 PTABUA21 1 0 5.1256 28.115 179.8760   1050
PPENEL21 PTABUA21 2 0 5.1256 28.115 179.8760   1050
PC.BRA21 PFATEL21 1 8 3.1944 16.518 119.3388    971
PC.BRA21 PFATEL22 2 0 3.1944 16.518 119.3388    971
PM.CAV21 PLAGOA21 1 0 3.5235 19.030 125.0000   1050
PM.CAV21 PVALPA21 1 0 1.5633 16.751 191.3636   2000
PV.P.A21 PVALPA21 1 0 1.0164 11.180 121.0743   2470
PV.P.A21 PVALPA21 2 0 1.0164 11.180 121.0743   2000
PV.P.A21 PPEV.P21 1 0 0.0339 0.1791 1.239669    869
PLAGOA21 PBEMPO21 1 0 2.0183 11.209 69.93801   1050
PLAGOA21 PBEMPO21 2 0 2.0086 11.107 70.06198   1050
PTABUA21 PPP-TB21 1 0 0.9196 4.9465 33.14049   1727
PTABUA21 PMORTA22 1 0 3.0976 16.843 110.1239   1003
PFUNDA21 PPNC-F21 1 0 2.1296 11.277 74.38016    971
PF.ALE11 PSINES11 1 0 1.7600 19.808 204.2437   2001
PF.ALE11 PALQUE11 1 0 1.9360 21.104 218.7187   2001
PVERMO11 PRECAR11 3 0 0.5280 5.6640 70.48125   2001
PVERMO11 PV.N.F11 1 0 1.0720 11.168 137.8312   2400
PA.MIR11 PR.MAI11 1 0 2.0640 22.768 244.8812   2001
PA.MIR11 PFANHO11 4 0 0.5280 5.3920 69.06250   2001
PA.MIR11 PRIBAT11 1 0 1.1680 12.272 148.2875   2001
PBATAL11 PLAVOS11 1 0 1.5520 17.120 185.7062   2001
PBATAL11 PPEGO_11 1 0 2.3200 21.744 228.0187   2001
PBATAL11 PRIBAT11 1 0 2.3680 26.912 278.3500   2001
PBATAL11 PPARAI11 1 0 3.0400 33.920 347.8750   2001
PF.FER11 PPALME11 5 0 0.8320 8.7200 106.8312   2001
PF.FER11 PRIBAT11 1 0 2.4640 27.008 297.2875   2001
PR.MAI11 PLAVOS11 1 0 2.5600 28.784 295.1625   2001
PR.MAI11 PPEGO_11 1 0 2.4800 26.880 280.8750   2001
PPALME11 PSINES11 2 8 2.8320 31.920 328.8625   2001
PPALME11 PDIVOR11 1 8 3.0080 33.072 363.5687   2307
PPALME11 PALCOC11 1 0 0.4320 4.8800 63.30625   2001
PPALME11 PPEGOE11 1 0 0.9600 10.720 120.5687   2001
PPALME11 PPM-SN11 3 8 0.6080 7.1360 75.60000   2001
PSINES11 PFANHO11 1 8 4.9920 53.648 612.4625   2001
PSINES11 PPEGOE11 1 0 2.5600 28.640 299.9500   2001
PSINES11 PPORTI11 3 0 3.0080 31.680 350.6000   2001
PSINES11 PPM-SN11 3 8 2.1440 24.896 263.9812   2001
PRIBAD11 PRIBAD12 1 0 0.000  0.2240 0.00000    6000
PRIBAD11 PRECAR12 1 0 0.8640 9.8560 100.1375   2470
PRIBAD11 PPEDRA11 1 0 0.6240 7.0720 72.89375   2470
PRIBAD12 PRECAR11 2 0 1.0080 11.424 116.1312   2470
PRIBAD12 PA.LIN11 2 0 1.7600 19.936 204.6875   2470
PFANHO11 PALCOC11 1 8 1.5680 17.552 189.7687   2001
PFANHO11 PPEGOE11 1 0 2.4000 25.760 304.3750   2001
PFANHO11 PRIBAT11 1 0 0.7200 7.6640 89.24375   2001
PFANHO11 PPM-SN11 1 8 2.7520 28.528 357.4625   2001
PARMAM11 PRECAR11 1 0 2.2400 23.200 275.0750   2269
PARMAM11 PBODIO11 2 0 2.0800 18.320 240.6437   2001
PARMAM11 PLAGOA11 1 0 2.5760 28.240 310.5625   2001
PARMAM11 PPEDRS11 1 0 0.4640 5.0080 55.40625    430
PARMAM11 PF.TUA11 1 0 1.1520 13.184 137.6687   2001
PV.MIN11 PPEDRA11 1 0 0.9280 8.5440 144.2000   3150
PV.MIN11 PPEDRA11 2 0 0.8800 9.2480 136.4625   3150
PV.MIN11 PR.PEN11 1 0 0.7680 8.0160 98.92500   2470
PV.MIN11 PR.PEN11 2 0 0.7680 8.0160 98.92500   2470
PFEIRA11 PRECAR11 1 0 0.6880 7.7760 79.41875   2001
PFEIRA11 PLAVOS11 1 0 3.3600 36.960 385.9375   2001
PRECAR11 PRECAR12 1 0 0.000  0.2240 0.00000    6000
PRECAR11 PV.N.F11 1 0 1.3280 14.032 168.3250   2400
PRECAR12 PPARAI11 1 0 2.4640 28.304 292.7562   2001
PV.N.F11 PPEDRA11 1 0 2.4160 25.728 302.3000   2470
PLAVOS11 PPARAI11 1 0 1.8880 19.616 239.5187   2001
PDIVOR11 PPEGOE11 1 0 2.0480 22.352 243.0000   2470
PDIVOR11 PESTRE11 1 0 1.5040 16.384 178.4000   2470
PA.LIN11 PPEDRA11 1 0 1.1680 13.072 134.2812   2470
PA.LIN11 XCA_AL11 1 0 0.7200 7.6160 89.98750   2223
PA.LIN11 XCA_AL12 1 0 0.7200 7.6160 89.98750   2223
PFALAG11 PPEGO_11 1 0 1.2800 13.600 141.3125   2001
PFALAG11 PESTRE11 1 0 2.6240 28.480 308.7312   2001
PFALAG11 PFUNDA11 1 0 2.9120 30.960 371.8062   2470
PFALAG11 XCE_FR11 1 0 0.3920 4.3200 45.91875   2001
PPARAI11 PBODIO11 2 0 2.1600 19.888 215.0625   2001
PPORTI11 PTAVIR11 1 0 2.3680 24.928 302.6000   2001
PALQUE11 XBR_AV11 1 0 1.3200 12.680 147.8312   1949
PLAGOA11 PBEMPO11 3 0 0.8640 9.2160 107.9250   2001
PLAGOA11 XAL_LG11 1 0 0.1120 1.0160 10.87500   2237
PTAVIR11 XPU_TV11 1 0 1.0240 9.2480 107.7500   2001
PV.NOV31 PC.SAL31 1 0 0.4702 3.1680 23.20000   1001
PCABRI31 PBOUCA31 1 0 1.2960 4.4235 28.08888    400
PCOS-M31 PPEMGR31 1 0 0.000  0.0698 0.00000    1293
PCOS-M31 PPENI_31 1 0 3.2175 16.670 120.0000   1293
PCOS-M31 PPEBRV31 1 0 0.000  0.0698 0.00000    1293
PTG-CN21 PT.OUT21 1 0 0.1742 2.3426 39.52479   3149
PAGUIE21 PMORTA21 2 0 0.0484 0.2517 1.652893    522
PPNC-F21 PPENC_21 1 0 0.0048 0.0678 0.165289   1430
PPNC-F21 PPERA_21 1 0 0.0048 0.0678 0.206612   1430
PT.OUT21 PRR-CN21 1 0 0.0145 0.2081 3.533058   3160
PPP-TB21 PPEPP_21 1 0 0.0048 0.0678 0.227273   1727
PPP-TB21 PPEBR_21 1 0 0.0048 0.0678 0.227273   1727
PPP-TB21 PPETTC21 1 0 0.000  0.0678 0.00000    1727
PPP-TB21 PPEVGR21 1 0 0.000  0.0678 0.00000    1727
PVG-AM21 PPEVAL21 1 0 0.2807 1.4762 9.938017   1328
##C
 
-------------2 WINDING TRANSFORMER BLOCK-------------
 
##T
PZEZER21 PZEZER31 0 8  220.  150.  150. 0.5421 23.112 -11.1260 1.5806    577
PZEZER21 PZEZER31 1 0  220.  153.  250. 0.3252 19.350 -1.60124 0.7500   1010
PF.ALE11 PF.ALE31 4 0  400.  150.  250. 1.4240 76.592 -3.45625 0.4562   1010
PF.ALE11 PF.ALE31 5 0  400.  150.  250. 1.4240 76.336 -2.39375 0.5188   1010
PF.FER11 PF.FER31 5 0  400.  150.  450. 0.6720 44.048 -7.05937 1.2656   1819
PPALME11 PPALME31 2 0  400.  150.  450. 0.6880 45.408 -9.16875 1.3813   1819
PPALME11 PPALME31 3 0  400.  150.  450. 0.6880 45.456 -10.7750 1.4062   1819
PSINES11 PSINES31 5 0  400.  150.  360. 0.8640 55.232 -3.53125 0.9688   1455
PSINES11 PSINES31 6 0  400.  150.  360. 0.8960 54.448 -1.68750 0.8125   1455
PVALDI21 PVALDI31 4 0  220.  150.   80. 1.0164 42.567 -1.51240 0.5372    323
PRIBAD11 PRIBAD31 1 0  400.  161.  360. 0.9600 71.328 -3.64375 0.8750   1455
PRIBAD11 PRIBAD31 2 0  400.  161.  360. 0.9600 71.328 -3.41875 0.9000   1455
PFALAG12 PFALAG31 5 0  400.  149.  450. 0.3280 31.872 -2.72500 1.9750   2079
PFALAG13 PFALAG31 4 0  400.  149.  450. 0.3280 31.872 -2.72500 1.9750   2079
PPORTI11 PPORTI31 4 0  400.  150.  450. 0.6880 55.808 -0.64687 1.1531   1819
PC.BRA31 PC.BRA21 1 0  150.  220.  250. 0.1125 9.0900 -5.66667 2.0000    689
PC.BRA31 PC.BRA21 2 0  150.  220.  250. 0.1530 9.1080 -8.60444 1.7333    689
PPEDRA41 PPEDRA31 4 0  130.  145.  140. 0.000  19.676 -3.37278 3.9645    566
PPEDRA12 PPEDRA31 1 0  400.  149.  450. 0.3280 31.872 -2.72500 1.9750   2079
PPEDRA13 PPEDRA31 2 0  400.  149.  450. 0.3360 32.888 -6.18750 1.2375   2079
PTAVIR11 PTAVIR31 4 0  400.  150.  450. 0.7040 55.648 -0.70312 1.1563   1819
PTAVIR11 PTAVIR31 5 0  400.  150.  450. 1.2096 55.648 -1.11125 0.4363   1819
PVERMO11 PVERMO21 2 0  400.  234.  450. 0.6080 56.864 -0.69875 0.7062   1240
PVERMO11 PVERMO21 3 0  400.  234.  450. 0.5600 57.120 -0.70000 0.7037   1240
PA.MIR11 PA.MIR21 4 0  400.  220.  450. 0.5600 42.336 -2.70000 0.8438   1240
PA.MIR11 PA.MIR21 5 0  400.  219.  450. 0.5440 56.976 -0.59375 0.7062   1240
PR.MAI11 PR.MAI21 2 0  400.  220.  450. 0.6560 44.336 -2.84375 0.9313   1240
PR.MAI11 PR.MAI21 3 0  400.  220.  450. 0.6720 44.672 -6.35625 0.9875   1240
PFANHO11 PFANHO21 4 0  400.  220.  450. 0.5600 56.672 -0.67812 0.6750   1240
PFANHO11 PFANHO21 5 0  400.  220.  450. 0.6400 41.776 -2.36250 0.8438   1240
PFANHO11 PFANHO21 6 0  400.  220.  450. 0.6400 42.960 -2.86875 0.9000   1240
PARMAM11 PARMAM21 1 0  400.  220.  450. 0.5552 56.675 -0.65937 0.7375   1240
PRECAR11 PRECAR21 1 0  400.  225.  450. 0.5920 41.664 -2.53125 0.8438   1240
PRECAR11 PRECAR21 2 0  400.  225.  450. 0.5760 41.984 -3.19813 0.8750   1240
PPARAI11 PPARAI21 3 0  400.  220.  450. 0.5600 56.384 -0.81250 0.7200   1240
PLAGOA11 PLAGOA21 1 0  400.  220.  450. 0.5600 57.424 -0.71375 0.7062   1240
PLAGOA11 PLAGOA21 2 0  400.  220.  450. 0.5600 56.672 -0.67250 0.7625   1240
PLAGOA11 PLAGOA21 3 0  400.  220.  450. 0.5600 57.568 -0.68500 0.7312   1240
PFUNDA11 PFUNDA21 1 0  400.  220.  450. 0.7856 57.987 -2.29500 0.6188   1181
PFALAG11 PFALAG12 5 0  400.  400.  450. 0.3280 31.872 -2.72500 1.9750    779
PFALAG11 PFALAG13 4 0  400.  400.  450. 0.3280 31.872 -2.72500 1.9750    779
PPEDRA11 PPEDRA12 1 0  400.  400.  450. 0.3280 31.872 -2.72500 1.9750    779
PPEDRA11 PPEDRA13 2 0  400.  400.  450. 0.3280 31.872 -2.72500 1.9750    779
##C
 
-------2 WINDING TRANSFORMER REGULATION BLOCK------

##R
PZEZER21 PZEZER31 0 1.295 11  -3
PZEZER21 PZEZER31 1 1.000 10   2
PF.ALE11 PF.ALE31 4 1.050 12   0
PF.ALE11 PF.ALE31 5 1.042 12   0
PF.FER11 PF.FER31 5 1.042 12   0
PPALME11 PPALME31 2 1.247 10   0
PPALME11 PPALME31 3 1.247 10   0
PSINES11 PSINES31 5 1.232 10   0
PSINES11 PSINES31 6 1.224 10   0
PVALDI21 PVALDI31 4 2.405  2   0
PRIBAD11 PRIBAD31 1 1.251 12   6
PRIBAD11 PRIBAD31 2 1.251 12   6
PFALAG12 PFALAG31 5 0.886 10   1
PFALAG13 PFALAG31 4 0.886 10   1
PPORTI11 PPORTI31 4 1.042 12   0
PC.BRA31 PC.BRA21 1 1.000 10   0
PC.BRA31 PC.BRA21 2 1.000 10   0
PPEDRA41 PPEDRA31 4  1.04 12  -3
PPEDRA12 PPEDRA31 1 0.886 10   1
PPEDRA13 PPEDRA31 2 0.886 10   1
PTAVIR11 PTAVIR31 4 1.042 12   0
PTAVIR11 PTAVIR31 5 1.042 12   0
PVERMO11 PVERMO21 2 1.029 12   6
PVERMO11 PVERMO21 3 1.027 12   6
PA.MIR11 PA.MIR21 4 1.042 12   0
PA.MIR11 PA.MIR21 5 1.412 12  -4
PR.MAI11 PR.MAI21 2 1.034 12   0
PR.MAI11 PR.MAI21 3 1.034 12   0
PFANHO11 PFANHO21 4 1.027 12   0
PFANHO11 PFANHO21 5 1.005 12  -2
PFANHO11 PFANHO21 6 1.034 12   0
PARMAM11 PARMAM21 1 1.027 12   0
PRECAR11 PRECAR21 1 1.002 12   0
PRECAR11 PRECAR21 2 1.034 12   2
PPARAI11 PPARAI21 3 1.027 12   0
PLAGOA11 PLAGOA21 1 1.027 12   0
PLAGOA11 PLAGOA21 2 1.027 12   0
PLAGOA11 PLAGOA21 3 1.027 12   0
PFUNDA11 PFUNDA21 1 1.042 12   0
##C
 
------------- EXCHANGE POWER BLOCK ---------------
 
##E
##C
END OF FILE
